<?xml version="1.0" encoding="UTF-8"?>
<nodes xmlns:xsi="http://www.w3.org/2001/XMLSchema-instance" xsi:noNamespaceSchemaLocation="http://sumo.dlr.de/xsd/nodes_file.xsd">
   <node id="0" x="0.0" y="0.0" type="traffic_light"/> <!-- def. of node "0" -->
   <node id="X" x="+200.0" y="0.0" type="traffic_light"/>
   <node id="Y" x="0.0" y="+200.0" type="traffic_light"/>
   <node id="XY" x="+200.0" y="+200.0" type="traffic_light"/>

   <node id="L0" x="-200.0" y="0.0" type="priority"/>
   <node id="D0" x="0.0" y="-200.0" type="priority"/>

   <node id="UY" x="0.0" y="+400.0"    type="priority"/>
   <node id="LY" x="-200.0" y="+200.0" type="priority"/>

   <node id="UXY" x="+200.0" y="+400.0" type="priority"/>
   <node id="RXY" x="+400.0" y="+200.0" type="priority"/>

   <node id="DX" x="+200.0" y="-200.0" type="priority"/>
   <node id="RX" x="+400.0" y="0.0" type="priority"/>


</nodes>
