<routes xmlns:xsi="http://www.w3.org/2001/XMLSchema-instance" xsi:noNamespaceSchemaLocation="http://sumo.dlr.de/xsd/routes_file.xsd">
   <vTypeDistribution id="mixed">
        <vType accel="1.0" decel="5.0" id="AggrCar" length="5.0" minGap="2.0" maxSpeed="100.0" sigma="0" color = "1,0,0" />
        <vType accel="1.0" decel="5.0" id="Car" length="5.0" minGap="2.0" maxSpeed="60.0" sigma="0"/>
      <vType accel="1.0" decel="5.0" id="LoyalCar" length="5.0" minGap="2.0" sigma="0" color="0,1,0"/>
   </vTypeDistribution>

   <route id="01" edges=" L00 0D0"/>
    <route id="02" edges=" L00 0X XDX"/>
    <route id="03" edges=" L00 0X XRX"/>
    <route id="04" edges=" L00 0X XXY XYRXY"/>
    <route id="05" edges=" L00 0Y YXY XYRXY"/>

    <route id="Y1" edges=" LYY Y0 0D0"/>
    <route id="Y2" edges=" LYY Y0 0X XRX"/>
    <route id="Y3" edges=" LYY Y0 0X XDX"/>
    <route id="Y4" edges=" LYY YXY XYRXY"/>
    <route id="Y5" edges=" LYY YXY XYX XRX"/>
    <route id="Y6" edges=" LYY YXY XYX XDX"/>

    <route id="YR1" edges=" UYY Y0 0D0"/>
    <route id="YR2" edges=" UYY Y0 0X XRX"/>
    <route id="YR3" edges=" UYY Y0 0X XDX"/>
    <route id="YR4" edges=" UYY YXY XYRXY"/>
    <route id="YR5" edges=" UYY YXY XYX XRX"/>
    <route id="YR6" edges=" UYY YXY XYX XDX"/>

    <route id="XY1" edges=" UXYXY XYRXY"/>
    <route id="XY2" edges=" UXYXY XYX XRX"/>
    <route id="XY3" edges=" UXYXY XYX XDX"/>
    <route id="XY4" edges=" UXYXY XYY Y0 0D0"/>
    <route id="XY5" edges=" UXYXY XYX X0 0D0"/>

    <flow id="0XY1" type="Car" route="XY1" number = "30" />
    <flow id="0XY2" type="Car" route="XY2" number = "30" />
    <flow id="0XY3" type="Car" route="XY3" number = "30" />
    <flow id="0XY4" type="Car" route="XY4" number = "30" />
    <flow id="0XY5" type="Car" route="XY5" number = "30" />


    <flow id="0XC1" type="Car" route="01" number = "30" />
    <flow id="0XC2" type="Car" route="02" number = "30" />
    <flow id="0XC3" type="Car" route="03" number = "30" />
    <flow id="0XC4" type="Car" route="04" number = "30" />
    <flow id="0XC5" type="Car" route="05" number = "30" />


    <flow id="0YC1" type="Car" route="Y1" number = "30" />
    <flow id="0YC2" type="Car" route="Y2" number = "30" />
    <flow id="0YC3" type="Car" route="Y3" number = "30" />
    <flow id="0YC4" type="Car" route="Y4" number = "30" />
    <flow id="0YC5" type="Car" route="Y5" number = "30" />
    <flow id="0YC6" type="Car" route="Y6" number = "30" />

    <flow id="0YRC1" type="Car" route="YR1" number = "30" />
    <flow id="0YRC2" type="Car" route="YR2" number = "30" />
    <flow id="0YRC3" type="Car" route="YR3" number = "30" />
    <flow id="0YRC4" type="Car" route="YR4" number = "30" />
    <flow id="0YRC5" type="Car" route="YR5" number = "30" />
    <flow id="0YRC6" type="Car" route="YR6" number = "30" />

</routes>