<?xml version="1.0" encoding="UTF-8"?>

<!-- generated on 10/26/19 23:01:02 by Eclipse SUMO netconvert Version 1.3.1
<configuration xmlns:xsi="http://www.w3.org/2001/XMLSchema-instance" xsi:noNamespaceSchemaLocation="http://sumo.dlr.de/xsd/netconvertConfiguration.xsd">

    <input>
        <node-files value="./cross3l.nod.xml"/>
        <edge-files value="./cross3l.edg.xml"/>
        <connection-files value="./cross3l.con.xml"/>
    </input>

    <output>
        <output-file value="./net.net.xml"/>
    </output>

    <report>
        <verbose value="true"/>
    </report>

</configuration>
-->

<net version="1.3" junctionCornerDetail="5" limitTurnSpeed="5.50" xmlns:xsi="http://www.w3.org/2001/XMLSchema-instance" xsi:noNamespaceSchemaLocation="http://sumo.dlr.de/xsd/net_file.xsd">

    <location netOffset="200.00,200.00" convBoundary="0.00,0.00,600.00,600.00" origBoundary="-200.00,-200.00,400.00,400.00" projParameter="!"/>

    <edge id=":0_0" function="internal">
        <lane id=":0_0_0" index="0" speed="6.51" length="9.03" shape="192.00,213.60 191.65,211.15 190.60,209.40 188.85,208.35 186.40,208.00"/>
    </edge>
    <edge id=":0_1" function="internal">
        <lane id=":0_1_0" index="0" speed="11.11" length="27.20" shape="192.00,213.60 192.00,186.40"/>
        <lane id=":0_1_1" index="1" speed="11.11" length="27.20" shape="195.20,213.60 195.20,186.40"/>
        <lane id=":0_1_2" index="2" speed="11.11" length="27.20" shape="198.40,213.60 198.40,186.40"/>
    </edge>
    <edge id=":0_4" function="internal">
        <lane id=":0_4_0" index="0" speed="10.36" length="7.98" shape="198.40,213.60 199.35,206.95 200.00,205.87"/>
    </edge>
    <edge id=":0_21" function="internal">
        <lane id=":0_21_0" index="0" speed="10.36" length="16.53" shape="200.00,205.87 202.20,202.20 206.95,199.35 213.60,198.40"/>
    </edge>
    <edge id=":0_5" function="internal">
        <lane id=":0_5_0" index="0" speed="6.51" length="9.03" shape="213.60,208.00 211.15,208.35 209.40,209.40 208.35,211.15 208.00,213.60"/>
    </edge>
    <edge id=":0_6" function="internal">
        <lane id=":0_6_0" index="0" speed="11.11" length="27.20" shape="213.60,208.00 186.40,208.00"/>
        <lane id=":0_6_1" index="1" speed="11.11" length="27.20" shape="213.60,204.80 186.40,204.80"/>
        <lane id=":0_6_2" index="2" speed="11.11" length="27.20" shape="213.60,201.60 186.40,201.60"/>
    </edge>
    <edge id=":0_9" function="internal">
        <lane id=":0_9_0" index="0" speed="10.36" length="7.98" shape="213.60,201.60 206.95,200.65 205.87,200.00"/>
    </edge>
    <edge id=":0_10" function="internal">
        <lane id=":0_10_0" index="0" speed="3.65" length="2.34" shape="213.60,201.60 212.40,200.80 212.00,200.00"/>
    </edge>
    <edge id=":0_22" function="internal">
        <lane id=":0_22_0" index="0" speed="10.36" length="16.53" shape="205.87,200.00 202.20,197.80 199.35,193.05 198.40,186.40"/>
    </edge>
    <edge id=":0_23" function="internal">
        <lane id=":0_23_0" index="0" speed="3.65" length="2.34" shape="212.00,200.00 212.40,199.20 213.60,198.40"/>
    </edge>
    <edge id=":0_11" function="internal">
        <lane id=":0_11_0" index="0" speed="6.51" length="9.03" shape="208.00,186.40 208.35,188.85 209.40,190.60 211.15,191.65 213.60,192.00"/>
    </edge>
    <edge id=":0_12" function="internal">
        <lane id=":0_12_0" index="0" speed="11.11" length="27.20" shape="208.00,186.40 208.00,213.60"/>
        <lane id=":0_12_1" index="1" speed="11.11" length="27.20" shape="204.80,186.40 204.80,213.60"/>
        <lane id=":0_12_2" index="2" speed="11.11" length="27.20" shape="201.60,186.40 201.60,213.60"/>
    </edge>
    <edge id=":0_15" function="internal">
        <lane id=":0_15_0" index="0" speed="10.36" length="7.98" shape="201.60,186.40 200.65,193.05 200.00,194.13"/>
    </edge>
    <edge id=":0_24" function="internal">
        <lane id=":0_24_0" index="0" speed="10.36" length="16.53" shape="200.00,194.13 197.80,197.80 193.05,200.65 186.40,201.60"/>
    </edge>
    <edge id=":0_16" function="internal">
        <lane id=":0_16_0" index="0" speed="6.51" length="9.03" shape="186.40,192.00 188.85,191.65 190.60,190.60 191.65,188.85 192.00,186.40"/>
    </edge>
    <edge id=":0_17" function="internal">
        <lane id=":0_17_0" index="0" speed="11.11" length="27.20" shape="186.40,192.00 213.60,192.00"/>
        <lane id=":0_17_1" index="1" speed="11.11" length="27.20" shape="186.40,195.20 213.60,195.20"/>
        <lane id=":0_17_2" index="2" speed="11.11" length="27.20" shape="186.40,198.40 213.60,198.40"/>
    </edge>
    <edge id=":0_20" function="internal">
        <lane id=":0_20_0" index="0" speed="10.36" length="7.98" shape="186.40,198.40 193.05,199.35 194.13,200.00"/>
    </edge>
    <edge id=":0_25" function="internal">
        <lane id=":0_25_0" index="0" speed="10.36" length="16.53" shape="194.13,200.00 197.80,202.20 200.65,206.95 201.60,213.60"/>
    </edge>
    <edge id=":D0_0" function="internal">
        <lane id=":D0_0_0" index="0" speed="3.65" length="4.67" shape="198.40,0.00 199.20,-1.20 200.00,-1.60 200.80,-1.20 201.60,0.00"/>
    </edge>
    <edge id=":DX_0" function="internal">
        <lane id=":DX_0_0" index="0" speed="3.65" length="4.67" shape="398.40,0.00 399.20,-1.20 400.00,-1.60 400.80,-1.20 401.60,0.00"/>
    </edge>
    <edge id=":L0_0" function="internal">
        <lane id=":L0_0_0" index="0" speed="3.65" length="4.67" shape="0.00,201.60 -1.20,200.80 -1.60,200.00 -1.20,199.20 0.00,198.40"/>
    </edge>
    <edge id=":LY_0" function="internal">
        <lane id=":LY_0_0" index="0" speed="3.65" length="4.67" shape="0.00,401.60 -1.20,400.80 -1.60,400.00 -1.20,399.20 0.00,398.40"/>
    </edge>
    <edge id=":RX_0" function="internal">
        <lane id=":RX_0_0" index="0" speed="3.65" length="4.67" shape="600.00,198.40 601.20,199.20 601.60,200.00 601.20,200.80 600.00,201.60"/>
    </edge>
    <edge id=":RXY_0" function="internal">
        <lane id=":RXY_0_0" index="0" speed="3.65" length="4.67" shape="600.00,398.40 601.20,399.20 601.60,400.00 601.20,400.80 600.00,401.60"/>
    </edge>
    <edge id=":UXY_0" function="internal">
        <lane id=":UXY_0_0" index="0" speed="3.65" length="4.67" shape="401.60,600.00 400.80,601.20 400.00,601.60 399.20,601.20 398.40,600.00"/>
    </edge>
    <edge id=":UY_0" function="internal">
        <lane id=":UY_0_0" index="0" speed="3.65" length="4.67" shape="201.60,600.00 200.80,601.20 200.00,601.60 199.20,601.20 198.40,600.00"/>
    </edge>
    <edge id=":X_0" function="internal">
        <lane id=":X_0_0" index="0" speed="6.51" length="9.03" shape="392.00,213.60 391.65,211.15 390.60,209.40 388.85,208.35 386.40,208.00"/>
    </edge>
    <edge id=":X_1" function="internal">
        <lane id=":X_1_0" index="0" speed="11.11" length="27.20" shape="392.00,213.60 392.00,186.40"/>
        <lane id=":X_1_1" index="1" speed="11.11" length="27.20" shape="395.20,213.60 395.20,186.40"/>
        <lane id=":X_1_2" index="2" speed="11.11" length="27.20" shape="398.40,213.60 398.40,186.40"/>
    </edge>
    <edge id=":X_4" function="internal">
        <lane id=":X_4_0" index="0" speed="10.36" length="7.98" shape="398.40,213.60 399.35,206.95 400.00,205.87"/>
    </edge>
    <edge id=":X_5" function="internal">
        <lane id=":X_5_0" index="0" speed="3.65" length="2.34" shape="398.40,213.60 399.20,212.40 400.00,212.00"/>
    </edge>
    <edge id=":X_21" function="internal">
        <lane id=":X_21_0" index="0" speed="10.36" length="16.53" shape="400.00,205.87 402.20,202.20 406.95,199.35 413.60,198.40"/>
    </edge>
    <edge id=":X_22" function="internal">
        <lane id=":X_22_0" index="0" speed="3.65" length="2.34" shape="400.00,212.00 400.80,212.40 401.60,213.60"/>
    </edge>
    <edge id=":X_6" function="internal">
        <lane id=":X_6_0" index="0" speed="6.51" length="9.03" shape="413.60,208.00 411.15,208.35 409.40,209.40 408.35,211.15 408.00,213.60"/>
    </edge>
    <edge id=":X_7" function="internal">
        <lane id=":X_7_0" index="0" speed="11.11" length="27.20" shape="413.60,208.00 386.40,208.00"/>
        <lane id=":X_7_1" index="1" speed="11.11" length="27.20" shape="413.60,204.80 386.40,204.80"/>
        <lane id=":X_7_2" index="2" speed="11.11" length="27.20" shape="413.60,201.60 386.40,201.60"/>
    </edge>
    <edge id=":X_10" function="internal">
        <lane id=":X_10_0" index="0" speed="10.36" length="7.98" shape="413.60,201.60 406.95,200.65 405.87,200.00"/>
    </edge>
    <edge id=":X_23" function="internal">
        <lane id=":X_23_0" index="0" speed="10.36" length="16.53" shape="405.87,200.00 402.20,197.80 399.35,193.05 398.40,186.40"/>
    </edge>
    <edge id=":X_11" function="internal">
        <lane id=":X_11_0" index="0" speed="6.51" length="9.03" shape="408.00,186.40 408.35,188.85 409.40,190.60 411.15,191.65 413.60,192.00"/>
    </edge>
    <edge id=":X_12" function="internal">
        <lane id=":X_12_0" index="0" speed="11.11" length="27.20" shape="408.00,186.40 408.00,213.60"/>
        <lane id=":X_12_1" index="1" speed="11.11" length="27.20" shape="404.80,186.40 404.80,213.60"/>
        <lane id=":X_12_2" index="2" speed="11.11" length="27.20" shape="401.60,186.40 401.60,213.60"/>
    </edge>
    <edge id=":X_15" function="internal">
        <lane id=":X_15_0" index="0" speed="10.36" length="7.98" shape="401.60,186.40 400.65,193.05 400.00,194.13"/>
    </edge>
    <edge id=":X_24" function="internal">
        <lane id=":X_24_0" index="0" speed="10.36" length="16.53" shape="400.00,194.13 397.80,197.80 393.05,200.65 386.40,201.60"/>
    </edge>
    <edge id=":X_16" function="internal">
        <lane id=":X_16_0" index="0" speed="6.51" length="9.03" shape="386.40,192.00 388.85,191.65 390.60,190.60 391.65,188.85 392.00,186.40"/>
    </edge>
    <edge id=":X_17" function="internal">
        <lane id=":X_17_0" index="0" speed="11.11" length="27.20" shape="386.40,192.00 413.60,192.00"/>
        <lane id=":X_17_1" index="1" speed="11.11" length="27.20" shape="386.40,195.20 413.60,195.20"/>
        <lane id=":X_17_2" index="2" speed="11.11" length="27.20" shape="386.40,198.40 413.60,198.40"/>
    </edge>
    <edge id=":X_20" function="internal">
        <lane id=":X_20_0" index="0" speed="10.36" length="7.98" shape="386.40,198.40 393.05,199.35 394.13,200.00"/>
    </edge>
    <edge id=":X_25" function="internal">
        <lane id=":X_25_0" index="0" speed="10.36" length="16.53" shape="394.13,200.00 397.80,202.20 400.65,206.95 401.60,213.60"/>
    </edge>
    <edge id=":XY_0" function="internal">
        <lane id=":XY_0_0" index="0" speed="6.51" length="9.03" shape="392.00,413.60 391.65,411.15 390.60,409.40 388.85,408.35 386.40,408.00"/>
    </edge>
    <edge id=":XY_1" function="internal">
        <lane id=":XY_1_0" index="0" speed="11.11" length="27.20" shape="392.00,413.60 392.00,386.40"/>
        <lane id=":XY_1_1" index="1" speed="11.11" length="27.20" shape="395.20,413.60 395.20,386.40"/>
        <lane id=":XY_1_2" index="2" speed="11.11" length="27.20" shape="398.40,413.60 398.40,386.40"/>
    </edge>
    <edge id=":XY_4" function="internal">
        <lane id=":XY_4_0" index="0" speed="10.36" length="7.98" shape="398.40,413.60 399.35,406.95 400.00,405.87"/>
    </edge>
    <edge id=":XY_21" function="internal">
        <lane id=":XY_21_0" index="0" speed="10.36" length="16.53" shape="400.00,405.87 402.20,402.20 406.95,399.35 413.60,398.40"/>
    </edge>
    <edge id=":XY_5" function="internal">
        <lane id=":XY_5_0" index="0" speed="6.51" length="9.03" shape="413.60,408.00 411.15,408.35 409.40,409.40 408.35,411.15 408.00,413.60"/>
    </edge>
    <edge id=":XY_6" function="internal">
        <lane id=":XY_6_0" index="0" speed="11.11" length="27.20" shape="413.60,408.00 386.40,408.00"/>
        <lane id=":XY_6_1" index="1" speed="11.11" length="27.20" shape="413.60,404.80 386.40,404.80"/>
        <lane id=":XY_6_2" index="2" speed="11.11" length="27.20" shape="413.60,401.60 386.40,401.60"/>
    </edge>
    <edge id=":XY_9" function="internal">
        <lane id=":XY_9_0" index="0" speed="10.36" length="7.98" shape="413.60,401.60 406.95,400.65 405.87,400.00"/>
    </edge>
    <edge id=":XY_22" function="internal">
        <lane id=":XY_22_0" index="0" speed="10.36" length="16.53" shape="405.87,400.00 402.20,397.80 399.35,393.05 398.40,386.40"/>
    </edge>
    <edge id=":XY_10" function="internal">
        <lane id=":XY_10_0" index="0" speed="6.51" length="9.03" shape="408.00,386.40 408.35,388.85 409.40,390.60 411.15,391.65 413.60,392.00"/>
    </edge>
    <edge id=":XY_11" function="internal">
        <lane id=":XY_11_0" index="0" speed="11.11" length="27.20" shape="408.00,386.40 408.00,413.60"/>
        <lane id=":XY_11_1" index="1" speed="11.11" length="27.20" shape="404.80,386.40 404.80,413.60"/>
        <lane id=":XY_11_2" index="2" speed="11.11" length="27.20" shape="401.60,386.40 401.60,413.60"/>
    </edge>
    <edge id=":XY_14" function="internal">
        <lane id=":XY_14_0" index="0" speed="10.36" length="7.98" shape="401.60,386.40 400.65,393.05 400.00,394.13"/>
    </edge>
    <edge id=":XY_23" function="internal">
        <lane id=":XY_23_0" index="0" speed="10.36" length="16.53" shape="400.00,394.13 397.80,397.80 393.05,400.65 386.40,401.60"/>
    </edge>
    <edge id=":XY_15" function="internal">
        <lane id=":XY_15_0" index="0" speed="6.51" length="9.03" shape="386.40,392.00 388.85,391.65 390.60,390.60 391.65,388.85 392.00,386.40"/>
    </edge>
    <edge id=":XY_16" function="internal">
        <lane id=":XY_16_0" index="0" speed="11.11" length="27.20" shape="386.40,392.00 413.60,392.00"/>
        <lane id=":XY_16_1" index="1" speed="11.11" length="27.20" shape="386.40,395.20 413.60,395.20"/>
        <lane id=":XY_16_2" index="2" speed="11.11" length="27.20" shape="386.40,398.40 413.60,398.40"/>
    </edge>
    <edge id=":XY_19" function="internal">
        <lane id=":XY_19_0" index="0" speed="10.36" length="7.98" shape="386.40,398.40 393.05,399.35 394.13,400.00"/>
    </edge>
    <edge id=":XY_20" function="internal">
        <lane id=":XY_20_0" index="0" speed="3.65" length="2.34" shape="386.40,398.40 387.60,399.20 388.00,400.00"/>
    </edge>
    <edge id=":XY_24" function="internal">
        <lane id=":XY_24_0" index="0" speed="10.36" length="16.53" shape="394.13,400.00 397.80,402.20 400.65,406.95 401.60,413.60"/>
    </edge>
    <edge id=":XY_25" function="internal">
        <lane id=":XY_25_0" index="0" speed="3.65" length="2.34" shape="388.00,400.00 387.60,400.80 386.40,401.60"/>
    </edge>
    <edge id=":Y_0" function="internal">
        <lane id=":Y_0_0" index="0" speed="6.51" length="9.03" shape="192.00,413.60 191.65,411.15 190.60,409.40 188.85,408.35 186.40,408.00"/>
    </edge>
    <edge id=":Y_1" function="internal">
        <lane id=":Y_1_0" index="0" speed="11.11" length="27.20" shape="192.00,413.60 192.00,386.40"/>
        <lane id=":Y_1_1" index="1" speed="11.11" length="27.20" shape="195.20,413.60 195.20,386.40"/>
        <lane id=":Y_1_2" index="2" speed="11.11" length="27.20" shape="198.40,413.60 198.40,386.40"/>
    </edge>
    <edge id=":Y_4" function="internal">
        <lane id=":Y_4_0" index="0" speed="10.36" length="7.98" shape="198.40,413.60 199.35,406.95 200.00,405.87"/>
    </edge>
    <edge id=":Y_21" function="internal">
        <lane id=":Y_21_0" index="0" speed="10.36" length="16.53" shape="200.00,405.87 202.20,402.20 206.95,399.35 213.60,398.40"/>
    </edge>
    <edge id=":Y_5" function="internal">
        <lane id=":Y_5_0" index="0" speed="6.51" length="9.03" shape="213.60,408.00 211.15,408.35 209.40,409.40 208.35,411.15 208.00,413.60"/>
    </edge>
    <edge id=":Y_6" function="internal">
        <lane id=":Y_6_0" index="0" speed="11.11" length="27.20" shape="213.60,408.00 186.40,408.00"/>
        <lane id=":Y_6_1" index="1" speed="11.11" length="27.20" shape="213.60,404.80 186.40,404.80"/>
        <lane id=":Y_6_2" index="2" speed="11.11" length="27.20" shape="213.60,401.60 186.40,401.60"/>
    </edge>
    <edge id=":Y_9" function="internal">
        <lane id=":Y_9_0" index="0" speed="10.36" length="7.98" shape="213.60,401.60 206.95,400.65 205.87,400.00"/>
    </edge>
    <edge id=":Y_22" function="internal">
        <lane id=":Y_22_0" index="0" speed="10.36" length="16.53" shape="205.87,400.00 202.20,397.80 199.35,393.05 198.40,386.40"/>
    </edge>
    <edge id=":Y_10" function="internal">
        <lane id=":Y_10_0" index="0" speed="6.51" length="9.03" shape="208.00,386.40 208.35,388.85 209.40,390.60 211.15,391.65 213.60,392.00"/>
    </edge>
    <edge id=":Y_11" function="internal">
        <lane id=":Y_11_0" index="0" speed="11.11" length="27.20" shape="208.00,386.40 208.00,413.60"/>
        <lane id=":Y_11_1" index="1" speed="11.11" length="27.20" shape="204.80,386.40 204.80,413.60"/>
        <lane id=":Y_11_2" index="2" speed="11.11" length="27.20" shape="201.60,386.40 201.60,413.60"/>
    </edge>
    <edge id=":Y_14" function="internal">
        <lane id=":Y_14_0" index="0" speed="10.36" length="7.98" shape="201.60,386.40 200.65,393.05 200.00,394.13"/>
    </edge>
    <edge id=":Y_15" function="internal">
        <lane id=":Y_15_0" index="0" speed="3.65" length="2.34" shape="201.60,386.40 200.80,387.60 200.00,388.00"/>
    </edge>
    <edge id=":Y_23" function="internal">
        <lane id=":Y_23_0" index="0" speed="10.36" length="16.53" shape="200.00,394.13 197.80,397.80 193.05,400.65 186.40,401.60"/>
    </edge>
    <edge id=":Y_24" function="internal">
        <lane id=":Y_24_0" index="0" speed="3.65" length="2.34" shape="200.00,388.00 199.20,387.60 198.40,386.40"/>
    </edge>
    <edge id=":Y_16" function="internal">
        <lane id=":Y_16_0" index="0" speed="6.51" length="9.03" shape="186.40,392.00 188.85,391.65 190.60,390.60 191.65,388.85 192.00,386.40"/>
    </edge>
    <edge id=":Y_17" function="internal">
        <lane id=":Y_17_0" index="0" speed="11.11" length="27.20" shape="186.40,392.00 213.60,392.00"/>
        <lane id=":Y_17_1" index="1" speed="11.11" length="27.20" shape="186.40,395.20 213.60,395.20"/>
        <lane id=":Y_17_2" index="2" speed="11.11" length="27.20" shape="186.40,398.40 213.60,398.40"/>
    </edge>
    <edge id=":Y_20" function="internal">
        <lane id=":Y_20_0" index="0" speed="10.36" length="7.98" shape="186.40,398.40 193.05,399.35 194.13,400.00"/>
    </edge>
    <edge id=":Y_25" function="internal">
        <lane id=":Y_25_0" index="0" speed="10.36" length="16.53" shape="194.13,400.00 197.80,402.20 200.65,406.95 201.60,413.60"/>
    </edge>

    <edge id="0D0" from="0" to="D0" priority="1">
        <lane id="0D0_0" index="0" speed="11.11" length="186.40" shape="192.00,186.40 192.00,0.00"/>
        <lane id="0D0_1" index="1" speed="11.11" length="186.40" shape="195.20,186.40 195.20,0.00"/>
        <lane id="0D0_2" index="2" speed="11.11" length="186.40" shape="198.40,186.40 198.40,0.00"/>
    </edge>
    <edge id="0L0" from="0" to="L0" priority="1">
        <lane id="0L0_0" index="0" speed="11.11" length="186.40" shape="186.40,208.00 0.00,208.00"/>
        <lane id="0L0_1" index="1" speed="11.11" length="186.40" shape="186.40,204.80 0.00,204.80"/>
        <lane id="0L0_2" index="2" speed="11.11" length="186.40" shape="186.40,201.60 0.00,201.60"/>
    </edge>
    <edge id="0X" from="0" to="X" priority="1">
        <lane id="0X_0" index="0" speed="11.11" length="172.80" shape="213.60,192.00 386.40,192.00"/>
        <lane id="0X_1" index="1" speed="11.11" length="172.80" shape="213.60,195.20 386.40,195.20"/>
        <lane id="0X_2" index="2" speed="11.11" length="172.80" shape="213.60,198.40 386.40,198.40"/>
    </edge>
    <edge id="0Y" from="0" to="Y" priority="1">
        <lane id="0Y_0" index="0" speed="11.11" length="172.80" shape="208.00,213.60 208.00,386.40"/>
        <lane id="0Y_1" index="1" speed="11.11" length="172.80" shape="204.80,213.60 204.80,386.40"/>
        <lane id="0Y_2" index="2" speed="11.11" length="172.80" shape="201.60,213.60 201.60,386.40"/>
    </edge>
    <edge id="D00" from="D0" to="0" priority="1">
        <lane id="D00_0" index="0" speed="11.11" length="186.40" shape="208.00,0.00 208.00,186.40"/>
        <lane id="D00_1" index="1" speed="11.11" length="186.40" shape="204.80,0.00 204.80,186.40"/>
        <lane id="D00_2" index="2" speed="11.11" length="186.40" shape="201.60,0.00 201.60,186.40"/>
    </edge>
    <edge id="DXX" from="DX" to="X" priority="1">
        <lane id="DXX_0" index="0" speed="11.11" length="186.40" shape="408.00,0.00 408.00,186.40"/>
        <lane id="DXX_1" index="1" speed="11.11" length="186.40" shape="404.80,0.00 404.80,186.40"/>
        <lane id="DXX_2" index="2" speed="11.11" length="186.40" shape="401.60,0.00 401.60,186.40"/>
    </edge>
    <edge id="L00" from="L0" to="0" priority="1">
        <lane id="L00_0" index="0" speed="11.11" length="186.40" shape="0.00,192.00 186.40,192.00"/>
        <lane id="L00_1" index="1" speed="11.11" length="186.40" shape="0.00,195.20 186.40,195.20"/>
        <lane id="L00_2" index="2" speed="11.11" length="186.40" shape="0.00,198.40 186.40,198.40"/>
    </edge>
    <edge id="LYY" from="LY" to="Y" priority="1">
        <lane id="LYY_0" index="0" speed="11.11" length="186.40" shape="0.00,392.00 186.40,392.00"/>
        <lane id="LYY_1" index="1" speed="11.11" length="186.40" shape="0.00,395.20 186.40,395.20"/>
        <lane id="LYY_2" index="2" speed="11.11" length="186.40" shape="0.00,398.40 186.40,398.40"/>
    </edge>
    <edge id="RXX" from="RX" to="X" priority="1">
        <lane id="RXX_0" index="0" speed="11.11" length="186.40" shape="600.00,208.00 413.60,208.00"/>
        <lane id="RXX_1" index="1" speed="11.11" length="186.40" shape="600.00,204.80 413.60,204.80"/>
        <lane id="RXX_2" index="2" speed="11.11" length="186.40" shape="600.00,201.60 413.60,201.60"/>
    </edge>
    <edge id="RXYXY" from="RXY" to="XY" priority="1">
        <lane id="RXYXY_0" index="0" speed="11.11" length="186.40" shape="600.00,408.00 413.60,408.00"/>
        <lane id="RXYXY_1" index="1" speed="11.11" length="186.40" shape="600.00,404.80 413.60,404.80"/>
        <lane id="RXYXY_2" index="2" speed="11.11" length="186.40" shape="600.00,401.60 413.60,401.60"/>
    </edge>
    <edge id="UXYXY" from="UXY" to="XY" priority="1">
        <lane id="UXYXY_0" index="0" speed="11.11" length="186.40" shape="392.00,600.00 392.00,413.60"/>
        <lane id="UXYXY_1" index="1" speed="11.11" length="186.40" shape="395.20,600.00 395.20,413.60"/>
        <lane id="UXYXY_2" index="2" speed="11.11" length="186.40" shape="398.40,600.00 398.40,413.60"/>
    </edge>
    <edge id="UYY" from="UY" to="Y" priority="1">
        <lane id="UYY_0" index="0" speed="11.11" length="186.40" shape="192.00,600.00 192.00,413.60"/>
        <lane id="UYY_1" index="1" speed="11.11" length="186.40" shape="195.20,600.00 195.20,413.60"/>
        <lane id="UYY_2" index="2" speed="11.11" length="186.40" shape="198.40,600.00 198.40,413.60"/>
    </edge>
    <edge id="X0" from="X" to="0" priority="1">
        <lane id="X0_0" index="0" speed="11.11" length="172.80" shape="386.40,208.00 213.60,208.00"/>
        <lane id="X0_1" index="1" speed="11.11" length="172.80" shape="386.40,204.80 213.60,204.80"/>
        <lane id="X0_2" index="2" speed="11.11" length="172.80" shape="386.40,201.60 213.60,201.60"/>
    </edge>
    <edge id="XDX" from="X" to="DX" priority="1">
        <lane id="XDX_0" index="0" speed="11.11" length="186.40" shape="392.00,186.40 392.00,0.00"/>
        <lane id="XDX_1" index="1" speed="11.11" length="186.40" shape="395.20,186.40 395.20,0.00"/>
        <lane id="XDX_2" index="2" speed="11.11" length="186.40" shape="398.40,186.40 398.40,0.00"/>
    </edge>
    <edge id="XRX" from="X" to="RX" priority="1">
        <lane id="XRX_0" index="0" speed="11.11" length="186.40" shape="413.60,192.00 600.00,192.00"/>
        <lane id="XRX_1" index="1" speed="11.11" length="186.40" shape="413.60,195.20 600.00,195.20"/>
        <lane id="XRX_2" index="2" speed="11.11" length="186.40" shape="413.60,198.40 600.00,198.40"/>
    </edge>
    <edge id="XXY" from="X" to="XY" priority="1">
        <lane id="XXY_0" index="0" speed="11.11" length="172.80" shape="408.00,213.60 408.00,386.40"/>
        <lane id="XXY_1" index="1" speed="11.11" length="172.80" shape="404.80,213.60 404.80,386.40"/>
        <lane id="XXY_2" index="2" speed="11.11" length="172.80" shape="401.60,213.60 401.60,386.40"/>
    </edge>
    <edge id="XYRXY" from="XY" to="RXY" priority="1">
        <lane id="XYRXY_0" index="0" speed="11.11" length="186.40" shape="413.60,392.00 600.00,392.00"/>
        <lane id="XYRXY_1" index="1" speed="11.11" length="186.40" shape="413.60,395.20 600.00,395.20"/>
        <lane id="XYRXY_2" index="2" speed="11.11" length="186.40" shape="413.60,398.40 600.00,398.40"/>
    </edge>
    <edge id="XYUXY" from="XY" to="UXY" priority="1">
        <lane id="XYUXY_0" index="0" speed="11.11" length="186.40" shape="408.00,413.60 408.00,600.00"/>
        <lane id="XYUXY_1" index="1" speed="11.11" length="186.40" shape="404.80,413.60 404.80,600.00"/>
        <lane id="XYUXY_2" index="2" speed="11.11" length="186.40" shape="401.60,413.60 401.60,600.00"/>
    </edge>
    <edge id="XYX" from="XY" to="X" priority="1">
        <lane id="XYX_0" index="0" speed="11.11" length="172.80" shape="392.00,386.40 392.00,213.60"/>
        <lane id="XYX_1" index="1" speed="11.11" length="172.80" shape="395.20,386.40 395.20,213.60"/>
        <lane id="XYX_2" index="2" speed="11.11" length="172.80" shape="398.40,386.40 398.40,213.60"/>
    </edge>
    <edge id="XYY" from="XY" to="Y" priority="1">
        <lane id="XYY_0" index="0" speed="11.11" length="172.80" shape="386.40,408.00 213.60,408.00"/>
        <lane id="XYY_1" index="1" speed="11.11" length="172.80" shape="386.40,404.80 213.60,404.80"/>
        <lane id="XYY_2" index="2" speed="11.11" length="172.80" shape="386.40,401.60 213.60,401.60"/>
    </edge>
    <edge id="Y0" from="Y" to="0" priority="1">
        <lane id="Y0_0" index="0" speed="11.11" length="172.80" shape="192.00,386.40 192.00,213.60"/>
        <lane id="Y0_1" index="1" speed="11.11" length="172.80" shape="195.20,386.40 195.20,213.60"/>
        <lane id="Y0_2" index="2" speed="11.11" length="172.80" shape="198.40,386.40 198.40,213.60"/>
    </edge>
    <edge id="YLY" from="Y" to="LY" priority="1">
        <lane id="YLY_0" index="0" speed="11.11" length="186.40" shape="186.40,408.00 0.00,408.00"/>
        <lane id="YLY_1" index="1" speed="11.11" length="186.40" shape="186.40,404.80 0.00,404.80"/>
        <lane id="YLY_2" index="2" speed="11.11" length="186.40" shape="186.40,401.60 0.00,401.60"/>
    </edge>
    <edge id="YUY" from="Y" to="UY" priority="1">
        <lane id="YUY_0" index="0" speed="11.11" length="186.40" shape="208.00,413.60 208.00,600.00"/>
        <lane id="YUY_1" index="1" speed="11.11" length="186.40" shape="204.80,413.60 204.80,600.00"/>
        <lane id="YUY_2" index="2" speed="11.11" length="186.40" shape="201.60,413.60 201.60,600.00"/>
    </edge>
    <edge id="YXY" from="Y" to="XY" priority="1">
        <lane id="YXY_0" index="0" speed="11.11" length="172.80" shape="213.60,392.00 386.40,392.00"/>
        <lane id="YXY_1" index="1" speed="11.11" length="172.80" shape="213.60,395.20 386.40,395.20"/>
        <lane id="YXY_2" index="2" speed="11.11" length="172.80" shape="213.60,398.40 386.40,398.40"/>
    </edge>

    <tlLogic id="0" type="static" programID="0" offset="0">
        <phase duration="42" state="GGGGgrrrrrrGGGGgrrrrr"/>
        <phase duration="3"  state="yyyyyrrrrrryyyyyrrrrr"/>
        <phase duration="42" state="rrrrrGGGGggrrrrrGGGGg"/>
        <phase duration="3"  state="rrrrryyyyyyrrrrryyyyy"/>
    </tlLogic>
    <tlLogic id="X" type="static" programID="0" offset="0">
        <phase duration="42" state="GGGGggrrrrrGGGGgrrrrr"/>
        <phase duration="3"  state="yyyyyyrrrrryyyyyrrrrr"/>
        <phase duration="42" state="rrrrrrGGGGgrrrrrGGGGg"/>
        <phase duration="3"  state="rrrrrryyyyyrrrrryyyyy"/>
    </tlLogic>
    <tlLogic id="XY" type="static" programID="0" offset="0">
        <phase duration="42" state="GGGGgrrrrrGGGGgrrrrrr"/>
        <phase duration="3"  state="yyyyyrrrrryyyyyrrrrrr"/>
        <phase duration="42" state="rrrrrGGGGgrrrrrGGGGgg"/>
        <phase duration="3"  state="rrrrryyyyyrrrrryyyyyy"/>
    </tlLogic>
    <tlLogic id="Y" type="static" programID="0" offset="0">
        <phase duration="42" state="GGGGgrrrrrGGGGggrrrrr"/>
        <phase duration="3"  state="yyyyyrrrrryyyyyyrrrrr"/>
        <phase duration="42" state="rrrrrGGGGgrrrrrrGGGGg"/>
        <phase duration="3"  state="rrrrryyyyyrrrrrryyyyy"/>
    </tlLogic>

    <junction id="0" type="traffic_light" x="200.00" y="200.00" incLanes="Y0_0 Y0_1 Y0_2 X0_0 X0_1 X0_2 D00_0 D00_1 D00_2 L00_0 L00_1 L00_2" intLanes=":0_0_0 :0_1_0 :0_1_1 :0_1_2 :0_21_0 :0_5_0 :0_6_0 :0_6_1 :0_6_2 :0_22_0 :0_23_0 :0_11_0 :0_12_0 :0_12_1 :0_12_2 :0_24_0 :0_16_0 :0_17_0 :0_17_1 :0_17_2 :0_25_0" shape="190.40,213.60 209.60,213.60 210.04,211.38 210.60,210.60 211.38,210.04 212.38,209.71 213.60,209.60 213.60,190.40 211.38,189.96 210.60,189.40 210.04,188.62 209.71,187.62 209.60,186.40 190.40,186.40 189.96,188.62 189.40,189.40 188.62,189.96 187.62,190.29 186.40,190.40 186.40,209.60 188.62,210.04 189.40,210.60 189.96,211.38 190.29,212.38">
        <request index="0"  response="000000000000000000000" foes="000000000000111000000" cont="0"/>
        <request index="1"  response="100000000001000000000" foes="111111000001111000000" cont="0"/>
        <request index="2"  response="100000000001000000000" foes="111111000001111000000" cont="0"/>
        <request index="3"  response="100000000001000000000" foes="111111000001111000000" cont="0"/>
        <request index="4"  response="100000111001000000000" foes="111100111011111000000" cont="1"/>
        <request index="5"  response="000000111000000000000" foes="000000111000000000000" cont="0"/>