<?xml version="1.0" encoding="UTF-8"?>

<!-- generated on 10/26/19 14:27:22 by Eclipse SUMO netconvert Version 1.3.1
<configuration xmlns:xsi="http://www.w3.org/2001/XMLSchema-instance" xsi:noNamespaceSchemaLocation="http://sumo.dlr.de/xsd/netconvertConfiguration.xsd">

    <input>
        <node-files value="./cross3l.nod.xml"/>
        <edge-files value="./cross3l.edg.xml"/>
        <connection-files value="./cross3l.con.xml"/>
    </input>

    <output>
        <output-file value="./net.net.xml"/>
    </output>

    <report>
        <verbose value="true"/>
    </report>

</configuration>
-->

<net version="1.3" junctionCornerDetail="5" limitTurnSpeed="5.50" xmlns:xsi="http://www.w3.org/2001/XMLSchema-instance" xsi:noNamespaceSchemaLocation="http://sumo.dlr.de/xsd/net_file.xsd">

    <location netOffset="200.00,200.00" convBoundary="0.00,0.00,600.00,400.00" origBoundary="-200.00,-200.00,400.00,200.00" projParameter="!"/>

    <edge id=":0_0" function="internal">
        <lane id=":0_0_0" index="0" speed="6.51" length="9.03" shape="192.00,213.60 191.65,211.15 190.60,209.40 188.85,208.35 186.40,208.00"/>
    </edge>
    <edge id=":0_1" function="internal">
        <lane id=":0_1_0" index="0" speed="12.50" length="27.20" shape="192.00,213.60 192.00,186.40"/>
        <lane id=":0_1_1" index="1" speed="12.50" length="27.20" shape="195.20,213.60 195.20,186.40"/>
        <lane id=":0_1_2" index="2" speed="12.50" length="27.20" shape="198.40,213.60 198.40,186.40"/>
    </edge>
    <edge id=":0_4" function="internal">
        <lane id=":0_4_0" index="0" speed="10.36" length="7.98" shape="198.40,213.60 199.35,206.95 200.00,205.87"/>
    </edge>
    <edge id=":0_20" function="internal">
        <lane id=":0_20_0" index="0" speed="10.36" length="16.53" shape="200.00,205.87 202.20,202.20 206.95,199.35 213.60,198.40"/>
    </edge>
    <edge id=":0_5" function="internal">
        <lane id=":0_5_0" index="0" speed="6.51" length="9.03" shape="213.60,208.00 211.15,208.35 209.40,209.40 208.35,211.15 208.00,213.60"/>
    </edge>
    <edge id=":0_6" function="internal">
        <lane id=":0_6_0" index="0" speed="12.50" length="27.20" shape="213.60,208.00 186.40,208.00"/>
        <lane id=":0_6_1" index="1" speed="12.50" length="27.20" shape="213.60,204.80 186.40,204.80"/>
        <lane id=":0_6_2" index="2" speed="12.50" length="27.20" shape="213.60,201.60 186.40,201.60"/>
    </edge>
    <edge id=":0_9" function="internal">
        <lane id=":0_9_0" index="0" speed="10.36" length="7.98" shape="213.60,201.60 206.95,200.65 205.87,200.00"/>
    </edge>
    <edge id=":0_21" function="internal">
        <lane id=":0_21_0" index="0" speed="10.36" length="16.53" shape="205.87,200.00 202.20,197.80 199.35,193.05 198.40,186.40"/>
    </edge>
    <edge id=":0_10" function="internal">
        <lane id=":0_10_0" index="0" speed="6.51" length="9.03" shape="208.00,186.40 208.35,188.85 209.40,190.60 211.15,191.65 213.60,192.00"/>
    </edge>
    <edge id=":0_11" function="internal">
        <lane id=":0_11_0" index="0" speed="12.50" length="27.20" shape="208.00,186.40 208.00,213.60"/>
        <lane id=":0_11_1" index="1" speed="12.50" length="27.20" shape="204.80,186.40 204.80,213.60"/>
        <lane id=":0_11_2" index="2" speed="12.50" length="27.20" shape="201.60,186.40 201.60,213.60"/>
    </edge>
    <edge id=":0_14" function="internal">
        <lane id=":0_14_0" index="0" speed="10.36" length="7.98" shape="201.60,186.40 200.65,193.05 200.00,194.13"/>
    </edge>
    <edge id=":0_22" function="internal">
        <lane id=":0_22_0" index="0" speed="10.36" length="16.53" shape="200.00,194.13 197.80,197.80 193.05,200.65 186.40,201.60"/>
    </edge>
    <edge id=":0_15" function="internal">
        <lane id=":0_15_0" index="0" speed="6.51" length="9.03" shape="186.40,192.00 188.85,191.65 190.60,190.60 191.65,188.85 192.00,186.40"/>
    </edge>
    <edge id=":0_16" function="internal">
        <lane id=":0_16_0" index="0" speed="12.50" length="27.20" shape="186.40,192.00 213.60,192.00"/>
        <lane id=":0_16_1" index="1" speed="12.50" length="27.20" shape="186.40,195.20 213.60,195.20"/>
        <lane id=":0_16_2" index="2" speed="12.50" length="27.20" shape="186.40,198.40 213.60,198.40"/>
    </edge>
    <edge id=":0_19" function="internal">
        <lane id=":0_19_0" index="0" speed="10.36" length="7.98" shape="186.40,198.40 193.05,199.35 194.13,200.00"/>
    </edge>
    <edge id=":0_23" function="internal">
        <lane id=":0_23_0" index="0" speed="10.36" length="16.53" shape="194.13,200.00 197.80,202.20 200.65,206.95 201.60,213.60"/>
    </edge>
    <edge id=":1_0" function="internal">
        <lane id=":1_0_0" index="0" speed="3.65" length="4.67" shape="0.00,201.60 -1.20,200.80 -1.60,200.00 -1.20,199.20 -0.00,198.40"/>
    </edge>
    <edge id=":3_0" function="internal">
        <lane id=":3_0_0" index="0" speed="3.65" length="4.67" shape="198.40,0.00 199.20,-1.20 200.00,-1.60 200.80,-1.20 201.60,-0.00"/>
    </edge>
    <edge id=":4_0" function="internal">
        <lane id=":4_0_0" index="0" speed="3.65" length="4.67" shape="201.60,400.00 200.80,401.20 200.00,401.60 199.20,401.20 198.40,400.00"/>
    </edge>
    <edge id=":m1_0" function="internal">
        <lane id=":m1_0_0" index="0" speed="12.50" length="0.10" shape="160.00,192.00 160.00,192.00"/>
        <lane id=":m1_0_1" index="1" speed="12.50" length="0.10" shape="160.00,195.20 160.00,195.20"/>
        <lane id=":m1_0_2" index="2" speed="12.50" length="0.10" shape="160.00,198.40 160.00,198.40"/>
    </edge>
    <edge id=":m2_0" function="internal">
        <lane id=":m2_0_0" index="0" speed="12.50" length="0.10" shape="240.00,208.00 240.00,208.00"/>
        <lane id=":m2_0_1" index="1" speed="12.50" length="0.10" shape="240.00,204.80 240.00,204.80"/>
        <lane id=":m2_0_2" index="2" speed="12.50" length="0.10" shape="240.00,201.60 240.00,201.60"/>
    </edge>
    <edge id=":m3_0" function="internal">
        <lane id=":m3_0_0" index="0" speed="12.50" length="0.10" shape="208.00,160.00 208.00,160.00"/>
        <lane id=":m3_0_1" index="1" speed="12.50" length="0.10" shape="204.80,160.00 204.80,160.00"/>
        <lane id=":m3_0_2" index="2" speed="12.50" length="0.10" shape="201.60,160.00 201.60,160.00"/>
    </edge>
    <edge id=":m4_0" function="internal">
        <lane id=":m4_0_0" index="0" speed="12.50" length="0.10" shape="192.00,240.00 192.00,240.00"/>
        <lane id=":m4_0_1" index="1" speed="12.50" length="0.10" shape="195.20,240.00 195.20,240.00"/>
        <lane id=":m4_0_2" index="2" speed="12.50" length="0.10" shape="198.40,240.00 198.40,240.00"/>
    </edge>
    <edge id=":q_0" function="internal">
        <lane id=":q_0_0" index="0" speed="6.51" length="9.03" shape="392.00,213.60 391.65,211.15 390.60,209.40 388.85,208.35 386.40,208.00"/>
    </edge>
    <edge id=":q_1" function="internal">
        <lane id=":q_1_0" index="0" speed="12.50" length="27.20" shape="392.00,213.60 392.00,186.40"/>
        <lane id=":q_1_1" index="1" speed="12.50" length="27.20" shape="395.20,213.60 395.20,186.40"/>
        <lane id=":q_1_2" index="2" speed="12.50" length="27.20" shape="398.40,213.60 398.40,186.40"/>
    </edge>
    <edge id=":q_4" function="internal">
        <lane id=":q_4_0" index="0" speed="10.36" length="7.98" shape="398.40,213.60 399.35,206.95 400.00,205.87"/>
    </edge>
    <edge id=":q_5" function="internal">
        <lane id=":q_5_0" index="0" speed="3.65" length="2.34" shape="398.40,213.60 399.20,212.40 400.00,212.00"/>
    </edge>
    <edge id=":q_24" function="internal">
        <lane id=":q_24_0" index="0" speed="10.36" length="16.53" shape="400.00,205.87 402.20,202.20 406.95,199.35 413.60,198.40"/>
    </edge>
    <edge id=":q_25" function="internal">
        <lane id=":q_25_0" index="0" speed="3.65" length="2.34" shape="400.00,212.00 400.80,212.40 401.60,213.60"/>
    </edge>
    <edge id=":q_6" function="internal">
        <lane id=":q_6_0" index="0" speed="6.51" length="9.03" shape="413.60,208.00 411.15,208.35 409.40,209.40 408.35,211.15 408.00,213.60"/>
    </edge>
    <edge id=":q_7" function="internal">
        <lane id=":q_7_0" index="0" speed="12.50" length="27.20" shape="413.60,208.00 386.40,208.00"/>
        <lane id=":q_7_1" index="1" speed="12.50" length="27.20" shape="413.60,204.80 386.40,204.80"/>
        <lane id=":q_7_2" index="2" speed="12.50" length="27.20" shape="413.60,201.60 386.40,201.60"/>
    </edge>
    <edge id=":q_10" function="internal">
        <lane id=":q_10_0" index="0" speed="10.36" length="7.98" shape="413.60,201.60 406.95,200.65 405.87,200.00"/>
    </edge>
    <edge id=":q_11" function="internal">
        <lane id=":q_11_0" index="0" speed="3.65" length="2.34" shape="413.60,201.60 412.40,200.80 412.00,200.00"/>
    </edge>
    <edge id=":q_26" function="internal">
        <lane id=":q_26_0" index="0" speed="10.36" length="16.53" shape="405.87,200.00 402.20,197.80 399.35,193.05 398.40,186.40"/>
    </edge>
    <edge id=":q_27" function="internal">
        <lane id=":q_27_0" index="0" speed="3.65" length="2.34" shape="412.00,200.00 412.40,199.20 413.60,198.40"/>
    </edge>
    <edge id=":q_12" function="internal">
        <lane id=":q_12_0" index="0" speed="6.51" length="9.03" shape="408.00,186.40 408.35,188.85 409.40,190.60 411.15,191.65 413.60,192.00"/>
    </edge>
    <edge id=":q_13" function="internal">
        <lane id=":q_13_0" index="0" speed="12.50" length="27.20" shape="408.00,186.40 408.00,213.60"/>
        <lane id=":q_13_1" index="1" speed="12.50" length="27.20" shape="404.80,186.40 404.80,213.60"/>
        <lane id=":q_13_2" index="2" speed="12.50" length="27.20" shape="401.60,186.40 401.60,213.60"/>
    </edge>
    <edge id=":q_16" function="internal">
        <lane id=":q_16_0" index="0" speed="10.36" length="7.98" shape="401.60,186.40 400.65,193.05 400.00,194.13"/>
    </edge>
    <edge id=":q_17" function="internal">
        <lane id=":q_17_0" index="0" speed="3.65" length="2.34" shape="401.60,186.40 400.80,187.60 400.00,188.00"/>
    </edge>
    <edge id=":q_28" function="internal">
        <lane id=":q_28_0" index="0" speed="10.36" length="16.53" shape="400.00,194.13 397.80,197.80 393.05,200.65 386.40,201.60"/>
    </edge>
    <edge id=":q_29" function="internal">
        <lane id=":q_29_0" index="0" speed="3.65" length="2.34" shape="400.00,188.00 399.20,187.60 398.40,186.40"/>
    </edge>
    <edge id=":q_18" function="internal">
        <lane id=":q_18_0" index="0" speed="6.51" length="9.03" shape="386.40,192.00 388.85,191.65 390.60,190.60 391.65,188.85 392.00,186.40"/>
    </edge>
    <edge id=":q_19" function="internal">
        <lane id=":q_19_0" index="0" speed="11.11" length="27.20" shape="386.40,192.00 413.60,192.00"/>
        <lane id=":q_19_1" index="1" speed="11.11" length="27.20" shape="386.40,195.20 413.60,195.20"/>
        <lane id=":q_19_2" index="2" speed="11.11" length="27.20" shape="386.40,198.40 413.60,198.40"/>
    </edge>
    <edge id=":q_22" function="internal">
        <lane id=":q_22_0" index="0" speed="10.36" length="7.98" shape="386.40,198.40 393.05,199.35 394.13,200.00"/>
    </edge>
    <edge id=":q_23" function="internal">
        <lane id=":q_23_0" index="0" speed="3.65" length="2.34" shape="386.40,198.40 387.60,199.20 388.00,200.00"/>
    </edge>
    <edge id=":q_30" function="internal">
        <lane id=":q_30_0" index="0" speed="10.36" length="16.53" shape="394.13,200.00 397.80,202.20 400.65,206.95 401.60,213.60"/>
    </edge>
    <edge id=":q_31" function="internal">
        <lane id=":q_31_0" index="0" speed="3.65" length="2.34" shape="388.00,200.00 387.60,200.80 386.40,201.60"/>
    </edge>
    <edge id=":q1_0" function="internal">
        <lane id=":q1_0_0" index="0" speed="3.65" length="4.67" shape="401.60,400.00 400.80,401.20 400.00,401.60 399.20,401.20 398.40,400.00"/>
    </edge>
    <edge id=":q2_0" function="internal">
        <lane id=":q2_0_0" index="0" speed="3.65" length="4.67" shape="398.40,0.00 399.20,-1.20 400.00,-1.60 400.80,-1.20 401.60,-0.00"/>
    </edge>
    <edge id=":q3_0" function="internal">
        <lane id=":q3_0_0" index="0" speed="3.65" length="4.67" shape="600.00,198.40 601.20,199.20 601.60,200.00 601.20,200.80 600.00,201.60"/>
    </edge>
    <edge id=":qm1_0" function="internal">
        <lane id=":qm1_0_0" index="0" speed="12.50" length="0.10" shape="392.00,240.00 392.00,240.00"/>
        <lane id=":qm1_0_1" index="1" speed="12.50" length="0.10" shape="395.20,240.00 395.20,240.00"/>
        <lane id=":qm1_0_2" index="2" speed="12.50" length="0.10" shape="398.40,240.00 398.40,240.00"/>
    </edge>
    <edge id=":qm2_0" function="internal">
        <lane id=":qm2_0_0" index="0" speed="12.50" length="0.10" shape="408.00,160.00 408.00,160.00"/>
        <lane id=":qm2_0_1" index="1" speed="12.50" length="0.10" shape="404.80,160.00 404.80,160.00"/>
        <lane id=":qm2_0_2" index="2" speed="12.50" length="0.10" shape="401.60,160.00 401.60,160.00"/>
    </edge>
    <edge id=":qm3_0" function="internal">
        <lane id=":qm3_0_0" index="0" speed="12.50" length="0.10" shape="440.00,208.00 440.00,208.00"/>
        <lane id=":qm3_0_1" index="1" speed="12.50" length="0.10" shape="440.00,204.80 440.00,204.80"/>
        <lane id=":qm3_0_2" index="2" speed="12.50" length="0.10" shape="440.00,201.60 440.00,201.60"/>
    </edge>

    <edge id="1fi" from="1" to="m1" priority="2">
        <lane id="1fi_0" index="0" speed="11.11" length="160.00" shape="-0.00,192.00 160.00,192.00"/>
        <lane id="1fi_1" index="1" speed="11.11" length="160.00" shape="-0.00,195.20 160.00,195.20"/>
        <lane id="1fi_2" index="2" speed="11.11" length="160.00" shape="-0.00,198.40 160.00,198.40"/>
    </edge>
    <edge id="1o" from="0" to="1" priority="1">
        <lane id="1o_0" index="0" speed="11.11" length="186.40" shape="186.40,208.00 0.00,208.00"/>
        <lane id="1o_1" index="1" speed="11.11" length="186.40" shape="186.40,204.80 0.00,204.80"/>
        <lane id="1o_2" index="2" speed="11.11" length="186.40" shape="186.40,201.60 0.00,201.60"/>
    </edge>
    <edge id="1si" from="m1" to="0" priority="3">
        <lane id="1si_0" index="0" speed="13.89" length="26.40" shape="160.00,192.00 186.40,192.00"/>
        <lane id="1si_1" index="1" speed="13.89" length="26.40" shape="160.00,195.20 186.40,195.20"/>
        <lane id="1si_2" index="2" speed="13.89" length="26.40" shape="160.00,198.40 186.40,198.40"/>
    </edge>
    <edge id="2fi" from="q" to="m2" priority="2">
        <lane id="2fi_0" index="0" speed="11.11" length="146.40" shape="386.40,208.00 240.00,208.00"/>
        <lane id="2fi_1" index="1" speed="11.11" length="146.40" shape="386.40,204.80 240.00,204.80"/>
        <lane id="2fi_2" index="2" speed="11.11" length="146.40" shape="386.40,201.60 240.00,201.60"/>
    </edge>
    <edge id="2o" from="0" to="q" priority="1">
        <lane id="2o_0" index="0" speed="11.11" length="172.80" shape="213.60,192.00 386.40,192.00"/>
        <lane id="2o_1" index="1" speed="11.11" length="172.80" shape="213.60,195.20 386.40,195.20"/>
        <lane id="2o_2" index="2" speed="11.11" length="172.80" shape="213.60,198.40 386.40,198.40"/>
    </edge>
    <edge id="2si" from="m2" to="0" priority="3">
        <lane id="2si_0" index="0" speed="13.89" length="26.40" shape="240.00,208.00 213.60,208.00"/>
        <lane id="2si_1" index="1" speed="13.89" length="26.40" shape="240.00,204.80 213.60,204.80"/>
        <lane id="2si_2" index="2" speed="13.89" length="26.40" shape="240.00,201.60 213.60,201.60"/>
    </edge>
    <edge id="3fi" from="3" to="m3" priority="2">
        <lane id="3fi_0" index="0" speed="11.11" length="160.00" shape="208.00,-0.00 208.00,160.00"/>
        <lane id="3fi_1" index="1" speed="11.11" length="160.00" shape="204.80,-0.00 204.80,160.00"/>
        <lane id="3fi_2" index="2" speed="11.11" length="160.00" shape="201.60,-0.00 201.60,160.00"/>
    </edge>
    <edge id="3o" from="0" to="3" priority="1">
        <lane id="3o_0" index="0" speed="11.11" length="186.40" shape="192.00,186.40 192.00,0.00"/>
        <lane id="3o_1" index="1" speed="11.11" length="186.40" shape="195.20,186.40 195.20,0.00"/>
        <lane id="3o_2" index="2" speed="11.11" length="186.40" shape="198.40,186.40 198.40,0.00"/>
    </edge>
    <edge id="3si" from="m3" to="0" priority="3">
        <lane id="3si_0" index="0" speed="13.89" length="26.40" shape="208.00,160.00 208.00,186.40"/>
        <lane id="3si_1" index="1" speed="13.89" length="26.40" shape="204.80,160.00 204.80,186.40"/>
        <lane id="3si_2" index="2" speed="13.89" length="26.40" shape="201.60,160.00 201.60,186.40"/>
    </edge>
    <edge id="4fi" from="4" to="m4" priority="2">
        <lane id="4fi_0" index="0" speed="11.11" length="160.00" shape="192.00,400.00 192.00,240.00"/>
        <lane id="4fi_1" index="1" speed="11.11" length="160.00" shape="195.20,400.00 195.20,240.00"/>
        <lane id="4fi_2" index="2" speed="11.11" length="160.00" shape="198.40,400.00 198.40,240.00"/>
    </edge>
    <edge id="4o" from="0" to="4" priority="1">
        <lane id="4o_0" index="0" speed="11.11" length="186.40" shape="208.00,213.60 208.00,400.00"/>
        <lane id="4o_1" index="1" speed="11.11" length="186.40" shape="204.80,213.60 204.80,400.00"/>
        <lane id="4o_2" index="2" speed="11.11" length="186.40" shape="201.60,213.60 201.60,400.00"/>
    </edge>
    <edge id="4si" from="m4" to="0" priority="3">
        <lane id="4si_0" index="0" speed="13.89" length="26.40" shape="192.00,240.00 192.00,213.60"/>
        <lane id="4si_1" index="1" speed="13.89" length="26.40" shape="195.20,240.00 195.20,213.60"/>
        <lane id="4si_2" index="2" speed="13.89" length="26.40" shape="198.40,240.00 198.40,213.60"/>
    </edge>
    <edge id="q1fi" from="q1" to="qm1" priority="2">
        <lane id="q1fi_0" index="0" speed="11.11" length="160.00" shape="392.00,400.00 392.00,240.00"/>
        <lane id="q1fi_1" index="1" speed="11.11" length="160.00" shape="395.20,400.00 395.20,240.00"/>
        <lane id="q1fi_2" index="2" speed="11.11" length="160.00" shape="398.40,400.00 398.40,240.00"/>
    </edge>
    <edge id="q1o" from="q" to="q1" priority="1">
        <lane id="q1o_0" index="0" speed="11.11" length="186.40" shape="408.00,213.60 408.00,400.00"/>
        <lane id="q1o_1" index="1" speed="11.11" length="186.40" shape="404.80,213.60 404.80,400.00"/>
        <lane id="q1o_2" index="2" speed="11.11" length="186.40" shape="401.60,213.60 401.60,400.00"/>
    </edge>
    <edge id="q1si" from="qm1" to="q" priority="3">
        <lane id="q1si_0" index="0" speed="13.89" length="26.40" shape="392.00,240.00 392.00,213.60"/>
        <lane id="q1si_1" index="1" speed="13.89" length="26.40" shape="395.20,240.00 395.20,213.60"/>
        <lane id="q1si_2" index="2" speed="13.89" length="26.40" shape="398.40,240.00 398.40,213.60"/>
    </edge>
    <edge id="q2fi" from="q2" to="qm2" priority="2">
        <lane id="q2fi_0" index="0" speed="11.11" length="160.00" shape="408.00,-0.00 408.00,160.00"/>
        <lane id="q2fi_1" index="1" speed="11.11" length="160.00" shape="404.80,-0.00 404.80,160.00"/>
        <lane id="q2fi_2" index="2" speed="11.11" length="160.00" shape="401.60,-0.00 401.60,160.00"/>
    </edge>
    <edge id="q2o" from="q" to="q2" priority="1">
        <lane id="q2o_0" index="0" speed="11.11" length="186.40" shape="392.00,186.40 392.00,0.00"/>
        <lane id="q2o_1" index="1" speed="11.11" length="186.40" shape="395.20,186.40 395.20,0.00"/>
        <lane id="q2o_2" index="2" speed="11.11" length="186.40" shape="398.40,186.40 398.40,0.00"/>
    </edge>
    <edge id="q2si" from="qm2" to="q" priority="3">
        <lane id="q2si_0" index="0" speed="13.89" length="26.40" shape="408.00,160.00 408.00,186.40"/>
        <lane id="q2si_1" index="1" speed="13.89" length="26.40" shape="404.80,160.00 404.80,186.40"/>
        <lane id="q2si_2" index="2" speed="13.89" length="26.40" shape="401.60,160.00 401.60,186.40"/>
    </edge>
    <edge id="q3fi" from="q3" to="qm3" priority="2">
        <lane id="q3fi_0" index="0" speed="11.11" length="160.00" shape="600.00,208.00 440.00,208.00"/>
        <lane id="q3fi_1" index="1" speed="11.11" length="160.00" shape="600.00,204.80 440.00,204.80"/>
        <lane id="q3fi_2" index="2" speed="11.11" length="160.00" shape="600.00,201.60 440.00,201.60"/>
    </edge>
    <edge id="q3o" from="q" to="q3" priority="1">
        <lane id="q3o_0" index="0" speed="11.11" length="186.40" shape="413.60,192.00 600.00,192.00"/>
        <lane id="q3o_1" index="1" speed="11.11" length="186.40" shape="413.60,195.20 600.00,195.20"/>
        <lane id="q3o_2" index="2" speed="11.11" length="186.40" shape="413.60,198.40 600.00,198.40"/>
    </edge>
    <edge id="q3si" from="qm3" to="q" priority="3">
        <lane id="q3si_0" index="0" speed="13.89" length="26.40" shape="440.00,208.00 413.60,208.00"/>
        <lane id="q3si_1" index="1" speed="13.89" length="26.40" shape="440.00,204.80 413.60,204.80"/>
        <lane id="q3si_2" index="2" speed="13.89" length="26.40" shape="440.00,201.60 413.60,201.60"/>
    </edge>

    <tlLogic id="0" type="static" programID="0" offset="0">
        <phase duration="42" state="GGGGgrrrrrGGGGgrrrrr"/>
        <phase duration="3"  state="yyyyyrrrrryyyyyrrrrr"/>
        <phase duration="42" state="rrrrrGGGGgrrrrrGGGGg"/>
        <phase duration="3"  state="rrrrryyyyyrrrrryyyyy"/>
    </tlLogic>
    <tlLogic id="q" type="static" programID="0" offset="0">
        <phase duration="42" state="GGGGggrrrrrrGGGGggrrrrrr"/>
        <phase duration="3"  state="yyyyyyrrrrrryyyyyyrrrrrr"/>
        <phase duration="42" state="rrrrrrGGGGggrrrrrrGGGGgg"/>
        <phase duration="3"  state="rrrrrryyyyyyrrrrrryyyyyy"/>
    </tlLogic>

    <junction id="0" type="traffic_light" x="200.00" y="200.00" incLanes="4si_0 4si_1 4si_2 2si_0 2si_1 2si_2 3si_0 3si_1 3si_2 1si_0 1si_1 1si_2" intLanes=":0_0_0 :0_1_0 :0_1_1 :0_1_2 :0_20_0 :0_5_0 :0_6_0 :0_6_1 :0_6_2 :0_21_0 :0_10_0 :0_11_0 :0_11_1 :0_11_2 :0_22_0 :0_15_0 :0_16_0 :0_16_1 :0_16_2 :0_23_0" shape="190.40,213.60 209.60,213.60 210.04,211.38 210.60,210.60 211.38,210.04 212.38,209.71 213.60,209.60 213.60,190.40 211.38,189.96 210.60,189.40 210.04,188.62 209.71,187.62 209.60,186.40 190.40,186.40 189.96,188.62 189.40,189.40 188.62,189.96 187.62,190.29 186.40,190.40 186.40,209.60 188.62,210.04 189.40,210.60 189.96,211.38 190.29,212.38">
        <request index="0"  response="00000000000000000000" foes="00000000000111000000" cont="0"/>
        <request index="1"  response="10000000001000000000" foes="11111100001111000000" cont="0"/>
        <request index="2"  response="10000000001000000000" foes="11111100001111000000" cont="0"/>
        <request index="3"  response="10000000001000000000" foes="11111100001111000000" cont="0"/>
        <request index="4"  response="10000011101000000000" foes="11110011101111000000" cont="1"/>
        <request index="5"  response="00000011100000000000" foes="00000011100000000000" cont="0"/>
        <request index="6"  response="00000111100000011111" foes="10000111100000011111" cont="0"/>
        <request index="7"  response="00000111100000011111" foes="10000111100000011111" cont="0"/>
        <request index="8"  response="00000111100000011111" foes="10000111100000011111" cont="0"/>
        <request index="9"  response="01110111100000011110" foes="01110111100000011110" cont="1"/>
        <request index="10" response="00000000000000000000" foes="01110000000000000000" cont="0"/>
        <request index="11" response="10000000001000000000" foes="11110000001111110000" cont="0"/>
        <request index="12" response="10000000001000000000" foes="11110000001111110000" cont="0"/>
        <request index="13" response="10000000001000000000" foes="11110000001111110000" cont="0"/>
        <request index="14" response="10000000001000001110" foes="11110000001111001110" cont="1"/>
        <request index="15" response="00000000000000001110" foes="00000000000000001110" cont="0"/>
        <request index="16" response="00000111110000011110" foes="00000111111000011110" cont="0"/>
        <request index="17" response="00000111110000011110" foes="00000111111000011110" cont="0"/>
        <request index="18" response="00000111110000011110" foes="00000111111000011110" cont="0"/>
        <request index="19" response="00000111100111011110" foes="00000111100111011110" cont="1"/>
    </junction>
    <junction id="1" type="priority" x="0.00" y="200.00" incLanes="1o_0 1o_1 1o_2" intLanes=":1_0_0" shape="-0.00,200.00 0.00,209.60 0.00,200.00">
        <request index="0" response="0" foes="0" cont="0"/>
    </junction>
    <junction id="3" type="priority" x="200.00" y="0.00" incLanes="3o_0 3o_1 3o_2" intLanes=":3_0_0" shape="200.00,-0.00 190.40,0.00 200.00,0.00">
        <request index="0" response="0" foes="0" cont="0"/>
    </junction>
    <junction id="4" type="priority" x="200.00" y="400.00" incLanes="4o_0 4o_1 4o_2" intLanes=":4_0_0" shape="200.00,400.00 209.60,400.00 200.00,400.00">
        <request index="0" response="0" foes="0" cont="0"/>
    </junction>
    <junction id="m1" type="priority" x="160.00" y="200.00" incLanes="1fi_0 1fi_1 1fi_2" intLanes=":m1_0_0 :m1_0_1 :m1_0_2" shape="160.00,200.00 160.00,190.40 160.00,200.00">
        <request index="0" response="000" foes="000" cont="0"/>
        <request index="1" response="000" foes="000" cont="0"/>
        <request index="2" response="000" foes="000" cont="0"/>
    </junction>
    <junction id="m2" type="priority" x="240.00" y="200.00" incLanes="2fi_0 2fi_1 2fi_2" intLanes=":m2_0_0 :m2_0_1 :m2_0_2" shape="240.00,209.60 240.00,200.00 240.00,209.60">
        <request index="0" response="000" foes="000" cont="0"/>
        <request index="1" response="000" foes="000" cont="0"/>
        <request index="2" response="000" foes="000" cont="0"/>
    </junction>
    <junction id="m3" type="priority" x="200.00" y="160.00" incLanes="3fi_0 3fi_1 3fi_2" intLanes=":m3_0_0 :m3_0_1 :m3_0_2" shape="200.00,160.00 209.60,160.00 200.00,160.00">
        <request index="0" response="000" foes="000" cont="0"/>
        <request index="1" response="000" foes="000" cont="0"/>
        <request index="2" response="000" foes="000" cont="0"/>
    </junction>
    <junction id="m4" type="priority" x="200.00" y="240.00" incLanes="4fi_0 4fi_1 4fi_2" intLanes=":m4_0_0 :m4_0_1 :m4_0_2" shape="190.40,240.00 200.00,240.00 190.40,240.00">
        <request index="0" response="000" foes="000" cont="0"/>
        <request index="1" response="000" foes="000" cont="0"/>
        <request index="2" response="000" foes="000" cont="0"/>
    </junction>
    <junction id="q" type="traffic_light" x="400.00" y="200.00" incLanes="q1si_0 q1si_1 q1si_2 q3si_0 q3si_1 q3si_2 q2si_0 q2si_1 q2si_2 2o_0 2o_1 2o_2" intLanes=":q_0_0 :q_1_0 :q_1_1 :q_1_2 :q_24_0 :q_25_0 :q_6_0 :q_7_0 :q_7_1 :q_7_2 :q_26_0 :q_27_0 :q_12_0 :q_13_0 :q_13_1 :q_13_2 :q_28_0 :q_29_0 :q_18_0 :q_19_0 :q_19_1 :q_19_2 :q_30_0 :q_31_0" shape="390.40,213.60 409.60,213.60 410.04,211.38 410.60,210.60 411.38,210.04 412.38,209.71 413.60,209.60 413.60,190.40 411.38,189.96 410.60,189.40 410.04,188.62 409.71,187.62 409.60,186.40 390.40,186.40 389.96,188.62 389.40,189.40 388.62,189.96 387.62,190.29 386.40,190.40 386.40,209.60 388.62,210.04 389.40,210.60 389.96,211.38 390.29,212.38">
        <request index="0"  response="000000000000000000000000" foes="000000000000001110000000" cont="0"/>
        <request index="1"  response="010000000000010000000000" foes="011111110000011110000000" cont="0"/>
        <request index="2"  response="010000000000010000000000" foes="011111110000011110000000" cont="0"/>
        <request index="3"  response="010000000000010000000000" foes="011111110000011110000000" cont="0"/>
        <request index="4"  response="010000001110010000000000" foes="011110001110111110000000" cont="1"/>
        <request index="5"  response="010000001110000000000000" foes="010000001110000000000000" cont="1"/>
        <request index="6"  response="000000001110000000000000" foes="000000001110000000000000" cont="0"/>
        <request index="7"  response="000000011110000000011111" foes="110000011110000000011111" cont="0"/>
        <request index="8"  response="000000011110000000011111" foes="110000011110000000011111" cont="0"/>
        <request index="9"  response="000000011110000000011111" foes="110000011110000000011111" cont="0"/>
        <request index="10" response="001110011110000000011110" foes="001110111110000000011110" cont="1"/>
        <request index="11" response="001110000000000000010000" foes="001110000000000000010000" cont="1"/>
        <request index="12" response="000000000000000000000000" foes="001110000000000000000000" cont="0"/>
        <request index="13" response="010000000000010000000000" foes="011110000000011111110000" cont="0"/>
        <request index="14" response="010000000000010000000000" foes="011110000000011111110000" cont="0"/>
        <request index="15" response="010000000000010000000000" foes="011110000000011111110000" cont="0"/>
        <request index="16" response="010000000000010000001110" foes="111110000000011110001110" cont="1"/>
        <request index="17" response="000000000000010000001110" foes="000000000000010000001110" cont="1"/>
        <request index="18" response="000000000000000000001110" foes="000000000000000000001110" cont="0"/>
        <request index="19" response="000000011111000000011110" foes="000000011111110000011110" cont="0"/>
        <request index="20" response="000000011111000000011110" foes="000000011111110000011110" cont="0"/>
        <request index="21" response="000000011111000000011110" foes="000000011111110000011110" cont="0"/>
        <request index="22" response="000000011110001110011110" foes="000000011110001110111110" cont="1"/>
        <request index="23" response="000000010000001110000000" foes="000000010000001110000000" cont="1"/>
    </junction>